Organization missing:
ROMS/TOMS 3.0 - South-Atlantic Bight and Gulf of Mexico
USEAST
EASTCOAST-2D-NAM/Forecast Model Run Collection (2D time coordinates)
EASTCOAST-3D-NAM/Forecast Model Run Collection (2D time coordinates)
NORTHERNGULF-2D-NAM/Forecast Model Run Collection (2D time coordinates)
SOUTHEAST-2D-NAM/Forecast Model Run Collection (2D time coordinates)
SOUTHWEST-2D-NAM/Forecast Model Run Collection (2D time coordinates)
NORTHERNGULF-3D-NAM/Forecast Model Run Collection (2D time coordinates)
SOUTHEAST-3D-NAM/Forecast Model Run Collection (2D time coordinates)
SOUTHWEST-3D-NAM/Forecast Model Run Collection (2D time coordinates)
USF FVCOM - Nowcast Aggregation

